THERMO
   298.000  1000.000  5000.000



NE                      NE  1               G   200.000  6000.000  1000.000    1
 2.50000000E+00 0.00000000E+00 0.00000000E+00 0.00000000E+00 0.00000000E+00    2
-7.45375000E+02 3.35532270E+00 2.50000000E+00 0.00000000E+00 0.00000000E+00    3
 0.00000000E+00 0.00000000E+00-7.45374980E+02 3.35532270E+00                   4
C(S)                    C   1               G   200.000  5000.000    12.010    1
 1.45569240E+00 1.71706380E-03-6.97584100E-07 1.35283160E-10-9.67649050E-15    2
-6.95128040E+02-8.52568420E+00-3.10872070E-01 4.40353690E-03 1.90394120E-06    3
-6.38546970E-09 2.98964250E-12-1.08650790E+02 1.11382950E+00                   4
O                       O   1               G   200.000  6000.000  1000.000    1
 2.54363697E+00-2.73162486E-05-4.19029520E-09 4.95481845E-12-4.79553694E-16    2
 2.92260120E+04 4.92229457E+00 3.16826710E+00-3.27931884E-03 6.64306396E-06    3
-6.12806624E-09 2.11265971E-12 2.91222592E+04 2.05193346E+00                   4
O2                      O   2               G   200.000  6000.000  1000.000    1
 3.66096065E+00 6.56365811E-04-1.41149627E-07 2.05797935E-11-1.29913436E-15    2
-1.21597718E+03 3.41536279E+00 3.78245636E+00-2.99673416E-03 9.84730201E-06    3
-9.68129509E-09 3.24372837E-12-1.06394356E+03 3.65767573E+00                   4
H                       H   1               G   200.000  6000.000  1000.000    1
 2.50000000E+00 0.00000000E+00 0.00000000E+00 0.00000000E+00 0.00000000E+00    2
 2.54736600E+04-4.46682850E-01 2.50000000E+00 0.00000000E+00 0.00000000E+00    3
 0.00000000E+00 0.00000000E+00 2.54736600E+04-4.46682850E-01                   4
H2                      H   2               G   200.000  3500.000  1000.000    1
 3.33727920E+00-4.94024731E-05 4.99456778E-07-1.79566394E-10 2.00255376E-14    2
-9.50158922E+02-3.20502331E+00 2.34433112E+00 7.98052075E-03-1.94781510E-05    3
 2.01572094E-08-7.37611761E-12-9.17935173E+02 6.83010238E-01                   4
OH                      O   1H   1          G   200.000  6000.000  1000.000    1
 2.83853033E+00 1.10741289E-03-2.94000209E-07 4.20698729E-11-2.42289890E-15    2
 3.69780808E+03 5.84494652E+00 3.99198424E+00-2.40106655E-03 4.61664033E-06    3
-3.87916306E-09 1.36319502E-12 3.36889836E+03-1.03998477E-01                   4
H2O                     H   2O   1          G   298.000  5000.000  1000.000    1
 2.67703890E+00 2.97318160E-03-7.73768890E-07 9.44335140E-11-4.26899910E-15    2
-2.98858940E+04 6.88255000E+00 4.19863520E+00-2.03640170E-03 6.52034160E-06    3
-5.48792690E-09 1.77196800E-12-3.02937260E+04-8.49009010E-01                   4
HO2                     H   1O   2          G   200.000  5000.000  1000.000    1
 4.17228741E+00 1.88117627E-03-3.46277286E-07 1.94657549E-11 1.76256905E-16    2
 3.10206839E+01 2.95767672E+00 4.30179807E+00-4.74912097E-03 2.11582905E-05    3
-2.42763914E-08 9.29225225E-12 2.64018485E+02 3.71666220E+00                   4
H2O2                    H   2O   2          G   200.000  6000.000  1000.000    1
 4.57977305E+00 4.05326003E-03-1.29844730E-06 1.98211400E-10-1.13968792E-14    2
-1.80071775E+04 6.64970694E-01 4.31515149E+00-8.47390622E-04 1.76404323E-05    3
-2.26762944E-08 9.08950158E-12-1.77067437E+04 3.27373319E+00                   4
C                       C   1               G   200.000  3500.000  1000.000    1
 2.49266888E+00 4.79889284E-05-7.24335020E-08 3.74291029E-11-4.87277893E-15    2
 8.54512953E+04 4.80150373E+00 2.55423955E+00-3.21537724E-04 7.33792245E-07    3
-7.32234889E-10 2.66521446E-13 8.54438832E+04 4.53130848E+00                   4
CH                      C   1H   1          G   200.000  3500.000  1000.000    1
 2.87846473E+00 9.70913681E-04 1.44445655E-07-1.30687849E-10 1.76079383E-14    2
 7.10124364E+04 5.48497999E+00 3.48981665E+00 3.23835541E-04-1.68899065E-06    3
 3.16217327E-09-1.40609067E-12 7.07972934E+04 2.08401108E+00                   4
CH2                     C   1H   2          G   200.000  3500.000  1000.000    1
 2.87410113E+00 3.65639292E-03-1.40894597E-06 2.60179549E-10-1.87727567E-14    2
 4.62636040E+04 6.17119324E+00 3.76267867E+00 9.68872143E-04 2.79489841E-06    3
-3.85091153E-09 1.68741719E-12 4.60040401E+04 1.56253185E+00                   4
CH2*                    C   1H   2          G   200.000  3500.000  1000.000    1
 2.29203842E+00 4.65588637E-03-2.01191947E-06 4.17906000E-10-3.39716365E-14    2
 5.09259997E+04 8.62650169E+00 4.19860411E+00-2.36661419E-03 8.23296220E-06    3
-6.68815981E-09 1.94314737E-12 5.04968163E+04-7.69118967E-01                   4
CH3                     C   1H   3          G   200.000  6000.000  1000.000    1
 2.97812060E+00 5.79785200E-03-1.97558000E-06 3.07297900E-10-1.79174160E-14    2
 1.65095130E+04 4.72247990E+00 3.65717970E+00 2.12659790E-03 5.45838830E-06    3
-6.61810030E-09 2.46570740E-12 1.64227160E+04 1.67353540E+00                   4
CH4                     C   1H   4          G   200.000  6000.000  1000.000    1
 1.91178600E+00 9.60267960E-03-3.38387841E-06 5.38797240E-10-3.19306807E-14    2
-1.00992136E+04 8.48241861E+00 5.14825732E+00-1.37002410E-02 4.93749414E-05    3
-4.91952339E-08 1.70097299E-11-1.02453222E+04-4.63322726E+00                   4
CO                      C   1O   1          G   200.000  6000.000  1000.000    1
 3.04848590E+00 1.35172810E-03-4.85794050E-07 7.88536440E-11-4.69807460E-15    2
-1.42661170E+04 6.01709770E+00 3.57953350E+00-6.10353690E-04 1.01681430E-06    3
 9.07005860E-10-9.04424490E-13-1.43440860E+04 3.50840930E+00                   4
CO2                     C   1O   2          G   200.000  6000.000  1000.000    1
 4.63651110E+00 2.74145690E-03-9.95897590E-07 1.60386660E-10-9.16198570E-15    2
-4.90249040E+04-1.93489550E+00 2.35681300E+00 8.98412990E-03-7.12206320E-06    3
 2.45730080E-09-1.42885480E-13-4.83719710E+04 9.90090350E+00                   4
HCO                     C   1H   1O   1     G   200.000  6000.000  1000.000    1
 3.92001542E+00 2.52279324E-03-6.71004164E-07 1.05615948E-10-7.43798261E-15    2
 3.65342928E+03 3.58077056E+00 4.23754610E+00-3.32075257E-03 1.40030264E-05    3
-1.34239995E-08 4.37416208E-12 3.87241185E+03 3.30834869E+00                   4
CH2O                    H   2C   1O   1     G   200.000  3500.000  1000.000    1
 1.76069008E+00 9.20000082E-03-4.42258813E-06 1.00641212E-09-8.83855640E-14    2
-1.39958323E+04 1.36563230E+01 4.79372315E+00-9.90833369E-03 3.73220008E-05    3
-3.79285261E-08 1.31772652E-11-1.43089567E+04 6.02812900E-01                   4
CH2OH                   C   1H   3O   1     G   200.000  3500.000  1000.000    1
 3.69266569E+00 8.64576797E-03-3.75101120E-06 7.87234636E-10-6.48554201E-14    2
-3.24250627E+03 5.81043215E+00 3.86388918E+00 5.59672304E-03 5.93271791E-06    3
-1.04532012E-08 4.36967278E-12-3.19391367E+03 5.47302243E+00                   4
CH3O                    C   1H   3O   1     G   300.000  3000.000  1000.000    1
 3.77079900E+00 7.87149700E-03-2.65638400E-06 3.94443100E-10-2.11261600E-14    2
 1.27832520E+02 2.92957500E+00 2.10620400E+00 7.21659500E-03 5.33847200E-06    3
-7.37763600E-09 2.07561000E-12 9.78601100E+02 1.31521770E+01                   4
CH3OH                   C   1H   4O   1     G   200.000  3500.000  1000.000    1
 1.78970791E+00 1.40938292E-02-6.36500835E-06 1.38171085E-09-1.17060220E-13    2
-2.53748747E+04 1.45023623E+01 5.71539582E+00-1.52309129E-02 6.52441155E-05    3
-7.10806889E-08 2.61352698E-11-2.56427656E+04-1.50409823E+00                   4
C2H                     C   2H   1          G   200.000  3500.000  1000.000    1
 3.16780652E+00 4.75221902E-03-1.83787077E-06 3.04190252E-10-1.77232770E-14    2
 6.71210650E+04 6.63589475E+00 2.88965733E+00 1.34099611E-02-2.84769501E-05    3
 2.94791045E-08-1.09331511E-11 6.68393932E+04 6.22296438E+00                   4
C2H2                    C   2H   2          G   200.000  3500.000  1000.000    1
 4.14756964E+00 5.96166664E-03-2.37294852E-06 4.67412171E-10-3.61235213E-14    2
 2.59359992E+04-1.23028121E+00 8.08681094E-01 2.33615629E-02-3.55171815E-05    3
 2.80152437E-08-8.50072974E-12 2.64289807E+04 1.39397051E+01                   4
C2H3                    C   2H   3          G   200.000  3500.000  1000.000    1
 3.01672400E+00 1.03302292E-02-4.68082349E-06 1.01763288E-09-8.62607041E-14    2
 3.46128739E+04 7.78732378E+00 3.21246645E+00 1.51479162E-03 2.59209412E-05    3
-3.57657847E-08 1.47150873E-11 3.48598468E+04 8.51054025E+00                   4
C2H4                    C   2H   4          G   200.000  3500.000  1000.000    1
 2.03611116E+00 1.46454151E-02-6.71077915E-06 1.47222923E-09-1.25706061E-13    2
 4.93988614E+03 1.03053693E+01 3.95920148E+00-7.57052247E-03 5.70990292E-05    3
-6.91588753E-08 2.69884373E-11 5.08977593E+03 4.09733096E+00                   4
C2H5                    C   2H   5          G   200.000  3500.000  1000.000    1
 1.95465642E+00 1.73972722E-02-7.98206668E-06 1.75217689E-09-1.49641576E-13    2
 1.28575200E+04 1.34624343E+01 4.30646568E+00-4.18658892E-03 4.97142807E-05    3
-5.99126606E-08 2.30509004E-11 1.28416265E+04 4.70720924E+00                   4
C2H6                    C   2H   6          G   200.000  3500.000  1000.000    1
 1.07188150E+00 2.16852677E-02-1.00256067E-05 2.21412001E-09-1.90002890E-13    2
-1.14263932E+04 1.51156107E+01 4.29142492E+00-5.50154270E-03 5.99438288E-05    3
-7.08466285E-08 2.68685771E-11-1.15222055E+04 2.66682316E+00                   4
CH2CO                   C   2H   2O   1     G   200.000  3500.000  1000.000    1
 4.51129732E+00 9.00359745E-03-4.16939635E-06 9.23345882E-10-7.94838201E-14    2
-7.55105311E+03 6.32247205E-01 2.13583630E+00 1.81188721E-02-1.73947474E-05    3
 9.34397568E-09-2.01457615E-12-7.04291804E+03 1.22156480E+01                   4
HCCO                    H   1C   2O   1     G   300.000  4000.000  1000.000    1
 5.62820580E+00 4.08534010E-03-1.59345470E-06 2.86260520E-10-1.94078320E-14    2
 1.93272150E+04-3.93025950E+00 2.25172140E+00 1.76550210E-02-2.37291010E-05    3
 1.72757590E-08-5.06648110E-12 2.00594490E+04 1.24904170E+01                   4
HCCOH                   C   2O   1H   2     G   300.000  5000.000  1000.000    1
 5.92382910E+00 6.79236000E-03-2.56585640E-06 4.49878410E-10-2.99401010E-14    2
 7.26462600E+03-7.60177420E+00 1.24237330E+00 3.10722010E-02-5.08668640E-05    3
 4.31371310E-08-1.40145940E-11 8.03161430E+03 1.38743190E+01                   4
N2                      N   2               G   300.000  5000.000  1520.000    1
 3.03294817E+00 1.18178128E-03-3.42137760E-07 4.40488657E-11-2.09260578E-15    2
-9.30475706E+02 5.46831697E+00 3.25725856E+00 6.04401868E-04 2.12507043E-07    3
-1.92829642E-10 3.60729081E-14-9.99528754E+02 4.28816488E+00                   4
AR                      AR  1               G   300.000  5000.000  1000.000    1
 2.50000000E+00 0.00000000E+00 0.00000000E+00 0.00000000E+00 0.00000000E+00    2
-7.45375000E+02 4.36600000E+00 2.50000000E+00 0.00000000E+00 0.00000000E+00    3
 0.00000000E+00 0.00000000E+00-7.45375000E+02 4.36600000E+00                   4
C4H                     C   4H   1          G   300.000  3000.000  1000.000    1
 7.76975930E+00 4.98299760E-03-1.76285460E-06 2.81442840E-10-1.66898690E-14    2
 9.43459000E+04-1.41652740E+01 1.31862950E+00 3.85829560E-02-7.13856230E-05    3
 6.53563590E-08-2.26176660E-11 9.54561060E+04 1.55675830E+01                   4
C4H2                    C   4H   2          G   300.000  3000.000  1000.000    1
 8.66377080E+00 6.72471890E-03-2.35933970E-06 3.75063800E-10-2.22309400E-14    2
 5.32522750E+04-2.10935030E+01-3.92010300E-01 5.19375650E-02-9.17373400E-05    3
 8.04719860E-08-2.68982180E-11 5.48452660E+04 2.09577940E+01                   4
C6H2                    C   6H   2          G   300.000  3000.000  1000.000    1
 1.32262810E+01 7.39043020E-03-2.27153810E-06 2.58752170E-10-5.53567410E-15    2
 8.05652580E+04-4.12011760E+01-1.59326240E+00 8.05301450E-02-1.48006490E-04    3
 1.33000310E-07-4.53323130E-11 8.32732270E+04 2.79808730E+01                   4
C6H                     C   6H   1          G   300.000  3000.000  1000.000    1
 1.23700550E+01 5.21776990E-03-1.68850090E-06 2.58071490E-10-1.54728510E-14    2
 1.21587390E+05-3.49527970E+01-2.56302990E-01 6.37938270E-02-1.14401180E-04    3
 1.01367440E-07-3.43618550E-11 1.24088550E+05 2.49307500E+01                   4
C2O                     C   2O   1          G   300.000  5000.000  1000.000    1
 4.84980900E+00 2.94758500E-03-1.09072900E-06 1.79256200E-10-1.11575800E-14    2
 3.28205500E+04-6.45322600E-01 3.36885100E+00 8.24180300E-03-8.76514500E-06    3
 5.56926200E-09-1.54000900E-12 3.31708100E+04 6.71331400E+00                   4
C3H2                    C   3H   2          G   300.000  5000.000  1000.000    1
 6.53085300E+00 5.87031600E-03-1.72077700E-06 2.12749800E-10-8.29191000E-15    2
 5.11521400E+04-1.12272800E+01 2.69107700E+00 1.48036600E-02-3.25055100E-06    3
-8.64436300E-09 5.28487800E-12 5.21907200E+04 8.75739100E+00                   4
!                                                                                         C3H3               82489C   3H   3          G  0300.00   4000.00  1000.00      1   !MIL/KLI03
!                                                                                          0.08831047E+02 0.04357195E-01-0.04109067E-05-0.02368723E-08 0.04376520E-12    2   !Only enthalpy changed to 84.3 kcal/mol
!                                                                                          3.91083189E+04-0.02257436E+03 0.04754200E+02 0.01108028E+00 0.02793323E-05    3
!                                                                                         -0.05479212E-07 0.01949629E-10 4.05229489E+04-0.02097137E+01                   4
C3H3                    C   3H   3          G   300.000  4000.000  1000.000    1
 8.83104700E+00 4.35719500E-03-4.10906700E-07-2.36872300E-10 4.37652000E-14    2
 3.99638800E+04-2.25743600E+01 4.75420000E+00 1.10802800E-02 2.79332300E-07    3
-5.47921200E-09 1.94962900E-12 4.13785100E+04-2.09713700E-01                   4
aC3H4                   C   3H   4          G   200.000  6000.000  1000.000    1
 6.31687220E+00 1.11337280E-02-3.96293780E-06 6.35642380E-10-3.78755400E-14    2
 2.01174950E+04-1.09957660E+01 2.61304450E+00 1.21225750E-02 1.85398800E-05    3
-3.45251490E-08 1.53350790E-11 2.15415670E+04 1.02261390E+01                   4
pC3H4                   H   4C   3          G   200.000  6000.000  1000.000    1
 6.02524000E+00 1.13365420E-02-4.02233910E-06 6.43760630E-10-3.82996350E-14    2
 1.96209420E+04-8.60437850E+00 2.68038690E+00 1.57996510E-02 2.50705960E-06    3
-1.36576230E-08 6.61542850E-12 2.08023740E+04 9.87693510E+00                   4
cC3H4                   C   3H   4          G   300.000  5000.000  1000.000    1
 6.69999310E+00 1.03573720E-02-3.45511670E-06 5.06529490E-10-2.66822760E-14    2
 3.01990510E+04-1.33787700E+01-2.46210470E-02 2.31972150E-02-1.84743570E-06    3
-1.59275930E-08 8.68461550E-12 3.23341370E+04 2.27297620E+01                   4
H2C4O                   H   2C   4O   1     G   300.000  4000.000  1000.000    1
 1.02688800E+01 4.89616400E-03-4.88508100E-07-2.70856600E-10 5.10701300E-14    2
 2.34690300E+04-2.81598500E+01 4.81097100E+00 1.31399900E-02 9.86507300E-07    3
-6.12072000E-09 1.64000300E-12 2.54580300E+04 2.11342400E+00                   4
C4H4                    C   4H   4          G   300.000  3000.000  1000.000    1
 6.65070920E+00 1.61294340E-02-7.19388750E-06 1.49817870E-09-1.18641100E-13    2
 3.11959920E+04-9.79521180E+00-1.91524790E+00 5.27508780E-02-7.16559440E-05    3
 5.50724230E-08-1.72862280E-11 3.29785040E+04 3.14199830E+01                   4
n-C4H3                  C   4H   3          G   300.000  3000.000  1000.000    1
 5.43282790E+00 1.68609810E-02-9.43131090E-06 2.57038950E-09-2.74563090E-13    2
 6.16006800E+04-1.56739810E+00-3.16841130E-01 4.69121000E-02-6.80938100E-05    3
 5.31799210E-08-1.65230050E-11 6.24761990E+04 2.46225590E+01                   4
i-C4H3                  C   4H   3          G   300.000  3000.000  1000.000    1
 9.09781650E+00 9.22071190E-03-3.38784410E-06 4.91604980E-10-1.45297800E-14    2
 5.66005740E+04-1.98025970E+01 2.08304120E+00 4.08342740E-02-6.21596850E-05    3
 5.16793580E-08-1.70291840E-11 5.80051290E+04 1.36174620E+01                   4
C2H3O                   O   1H   3C   2     G   300.000  5000.000  1000.000    1
 5.97566990E+00 8.13059140E-03-2.74362450E-06 4.07030410E-10-2.17601710E-14    2
 4.90321780E+02-5.03208790E+00 3.40906240E+00 1.07385740E-02 1.89149250E-06    3
 7.15858310E-09 2.86738510E-12 1.52147660E+03 9.57145350E+00                   4
n-C4H5                  C   4H   5          G   300.000  3000.000  1000.000    1
 9.85019780E+00 1.07790080E-02-1.36721250E-06-7.72005350E-10 1.83663140E-13    2
 3.88403010E+04-2.60018460E+01 1.63053210E-01 3.98301370E-02-3.40001280E-05    3
 1.51472330E-08-2.46658250E-12 4.14297660E+04 2.35361630E+01                   4
i-C4H5                  C   4H   5          G   300.000  3000.000  1000.000    1
 1.02290920E+01 9.48501380E-03-9.04064450E-08-1.25961000E-09 2.47814680E-13    2
 3.46428120E+04-2.85645290E+01-1.99329000E-02 3.80056720E-02-2.75594500E-05    3
 7.78355510E-09 4.02093830E-13 3.74962230E+04 2.43942410E+01                   4
n-C4H7                  C   4H   7          G   300.000  3000.000  1000.000    1
 1.19633920E+01 1.14253050E-02 7.89489090E-07-1.98588720E-09 3.68736450E-13    2
 1.69629770E+04-3.75429080E+01 2.86982540E-01 3.69644950E-02-8.62774410E-06    3
-1.50518210E-08 8.98912630E-12 2.05513010E+04 2.44844670E+01                   4
C4H6                    C   4H   6          G   300.000  3000.000  1000.000    1
 8.86731340E+00 1.49186700E-02-3.15487160E-06-4.18413300E-10 1.57612580E-13    2
 9.13385160E+03-2.33281710E+01 1.12844650E-01 3.43690220E-02-1.11073920E-05    3
-9.21066600E-09 6.20651790E-12 1.18022700E+04 2.30899960E+01                   4
C4H612                  C   4H   6          G   300.000  3000.000  1000.000    1
 1.78155700E+01-4.25750200E-03 1.05118500E-05-4.47384400E-09 5.84813800E-13    2
 1.26734200E+04-6.98266200E+01 1.02346700E+00 3.49591900E-02-2.20090500E-05    3
 6.94227200E-09-7.87918700E-13 1.81179900E+04 1.97506600E+01                   4
C6H4                    C   6H   4          G   300.000  3000.000  1000.000    1
 1.27151820E+01 1.38396620E-02-4.37654400E-06 3.15416360E-10 4.66190260E-14    2
 5.70311480E+04-3.94646000E+01 2.95902250E-01 5.80533180E-02-6.77667560E-05    3
 4.33767620E-08-1.14188640E-11 6.00013710E+04 2.23189700E+01                   4
c-C6H4                  C   6H   4          G   300.000  3000.000  1000.000    1
 1.38492090E+01 7.88079200E-03 1.82438360E-06-2.11691660E-09 3.74599770E-13    2
 4.74463400E+04-5.04049530E+01-3.09912680E+00 5.40305640E-02-4.08390040E-05    3
 1.07388370E-08 9.80784900E-13 5.22057110E+04 3.74152070E+01                   4
n-C6H5                  C   6H   5          G   300.000  3000.000  1000.000    1
 1.60700680E+01 8.18995390E-03 1.73251650E-06-2.06241850E-09 3.62923450E-13    2
 6.46168670E+04-5.61637420E+01-6.11357690E-01 6.50826100E-02-7.82623970E-05    3
 5.30308280E-08-1.49466830E-11 6.88053750E+04 2.76354680E+01                   4
l-C6H6                  C   6H   6          G   300.000  3000.000  1000.000    1
 1.75844420E+01 6.44866000E-03 4.89339800E-06-3.46962210E-09 5.61507490E-13    2
 3.41119880E+04-6.60178380E+01-1.01706220E+00 6.17948210E-02-5.94610610E-05    3
 3.18734910E-08-7.17176930E-12 3.92027070E+04 2.94603730E+01                   4
c-C6H7                  C   6H   7          G   300.000  3000.000  1000.000    1
 1.99968410E+01 1.11895430E-03 1.16497560E-05-6.27794710E-09 9.49395080E-13    2
 1.67300590E+04-8.37469330E+01-3.03284930E+00 5.08045180E-02-6.91502920E-06    3
-2.97159740E-08 1.62963530E-11 2.38953830E+04 3.89091800E+01                   4
n-C6H7                  C   6H   7          G   300.000  3000.000  1000.000    1
 2.25774690E+01-3.07375170E-03 1.42252340E-05-6.98808480E-09 1.02328740E-12    2
 4.12289800E+04-9.15686190E+01 1.32480320E-01 5.71033660E-02-4.37126440E-05    3
 1.55386030E-08-1.29763560E-12 4.77305120E+04 2.53390810E+01                   4
C6H8                    C   6H   8          G   300.000  3000.000  1000.000    1
 2.84819790E+01-1.57029480E-02 2.67716970E-05-1.17801090E-08 1.65734270E-12    2
 9.33464450E+03-1.25002260E+02 1.58504390E+00 4.02151420E-02 7.84395430E-06    3
-3.87613250E-08 1.85452070E-11 1.79496130E+04 1.91126250E+01                   4
C6H3                    C   6H   3          G   300.000  3000.000  1000.000    1
 5.81883430E+00 2.79334080E-02-1.78254270E-05 5.37025360E-09-6.17076270E-13    2
 8.51882500E+04-9.21478270E-01 1.17906190E+00 5.55473600E-02-7.30761680E-05    3
 5.20767360E-08-1.50469640E-11 8.56473120E+04 1.91791990E+01                   4
i-C6H5                  C   6H   5          G   300.000  3000.000  1000.000    1
 2.25016630E+01-8.10099770E-03 1.59556950E-05-7.23103710E-09 1.03104240E-12    2
 5.84734100E+04-9.12247770E+01-7.85854340E-01 6.02218250E-02-6.28902640E-05    3
 3.63107300E-08-8.70002590E-12 6.49422700E+04 2.86589050E+01                   4
i-C6H7                  C   6H   7          G   300.000  3000.000  1000.000    1
 2.04815060E+01 7.94396970E-04 1.14507610E-05-6.09911770E-09 9.17567240E-13    2
 3.77284260E+04-8.18120730E+01-1.70990940E+00 6.24860340E-02-5.42907070E-05    3
 2.69596820E-08-5.89990900E-12 4.40866210E+04 3.33447720E+01                   4
A1                      C   6H   6          G   300.000  3000.000  1000.000    1
 1.72469940E+01 3.84201640E-03 8.27762320E-06-4.89611200E-09 7.60645450E-13    2
 2.66460550E+03-7.19451750E+01-4.89986800E+00 5.98069320E-02-3.67100870E-05    3
 3.27403990E-09 3.76008860E-12 9.18245700E+03 4.40956420E+01                   4
A1-                     C   6H   5          G   300.000  3000.000  1000.000    1
 1.44934390E+01 7.57126880E-03 3.78945420E-06-3.07695000E-09 5.13478200E-13    2
 3.31899770E+04-5.42889400E+01-4.90761470E+00 5.97907710E-02-4.56398270E-05    3
 1.49649930E-08-9.17678260E-13 3.87334100E+04 4.65677800E+01                   4
C5H5                    C   5H   5          G   200.000  6000.000  1000.000    1
 1.08440660E+01 1.53928370E-02-5.56304210E-06 9.01893710E-10-5.41565310E-14    2
 2.69005660E+04-3.52549480E+01-9.59037180E-01 3.13968590E-02 2.67237940E-05    3
-6.89418720E-08 3.33018560E-11 3.07291200E+04 2.90728160E+01                   4
C5H6                    C   5H   6          G   298.150  5000.000  1000.000    1
 1.06243200E+01 1.77354480E-02-6.23304460E-06 9.73083170E-10-5.55001300E-14    2
 1.07721880E+04-3.57734220E+01-2.89789580E+00 4.34847770E-02-3.35110050E-06    3
-3.11037560E-08 1.69124440E-11 1.50847420E+04 3.68947600E+01                   4
C6H5O                   C   6H   5O   1     G   300.000  5000.000  1000.000    1
 1.38339840E+01 1.76184030E-02-6.06962570E-06 9.19881730E-10-5.04491810E-14    2
-6.92125490E+02-5.03929900E+01-1.82194330E+00 4.81225100E-02-4.67923020E-06    3
-3.40185940E-08 1.86496370E-11 4.24291800E+03 3.35261990E+01                   4
C6H5OH                  C   6H   6O   1     G   300.000  5000.000  1000.000    1
 1.49120730E+01 1.83781350E-02-6.19831280E-06 9.19832210E-10-4.92095650E-14    2
-1.83751990E+04-5.59241030E+01-1.69565390E+00 5.22712990E-02-7.20240500E-06    3
-3.58596030E-08 2.04490730E-11-1.32841210E+04 3.25421600E+01                   4
C5H4OH                  C   5H   5O   1     G   200.000  6000.000  1000.000    1
 1.33679120E+01 1.52057850E-02-5.45922580E-06 8.81348660E-10-5.27744540E-14    2
 3.84115060E+03-4.59208390E+01-1.28222360E+00 4.90411600E-02-1.36889970E-05    3
-2.91338580E-08 1.90069640E-11 8.00870980E+03 3.07983580E+01                   4
C5H4O                   C   5H   4O   1     G   300.000  3000.000  1000.000    1
 4.79272420E+00 2.92216800E-02-1.59974860E-05 4.20690490E-09-4.28151790E-13    2
 2.28492860E+03-3.01318930E+00-2.39153550E+00 4.73636800E-02-3.07281710E-05    3
 7.80315520E-09-2.51457290E-13 4.37401520E+03 3.45943370E+01                   4
C5H5O                   C   5O   1H   5     G   200.000  6000.000  1000.000    1
 1.26064220E+01 1.67472600E-02-6.10985740E-06 9.96765570E-10-6.01132010E-14    2
 3.93134550E+03-4.26042770E+01 2.30428350E-01 3.23226910E-02 2.89004430E-05    3
-7.06799770E-08 3.34068910E-11 8.07530820E+03 2.53309740E+01                   4
C4H10                   C   4H  10          G   300.000  3000.000  1000.000    1
 1.05267740E+01 2.35907380E-02-7.85224800E-06 1.14484080E-09-5.98277030E-14    2
-2.04792230E+04-3.21985790E+01 1.56854190E+00 3.46522780E-02 6.81681290E-06    3
-2.79950970E-08 1.23077420E-11-1.71299770E+04 1.79080450E+01                   4
iC4H10                  C   4H  10          G   300.000  3000.000  1000.000    1
 1.08461690E+01 2.33383890E-02-7.78339620E-06 1.13938070E-09-5.99182890E-14    2
-2.16698540E+04-3.58705730E+01 5.41094890E-01 3.78603010E-02 5.54598040E-06    3
-3.05001100E-08 1.40333570E-11-1.79776440E+04 2.11509350E+01                   4
pC4H9                   C   4H   9          G   300.000  3000.000  1000.000    1
 9.01317590E+00 2.39925010E-02-8.94887940E-06 1.53110240E-09-9.82166800E-14    2
 4.70501630E+03-2.05681600E+01 2.21285060E+00 3.28081500E-02 3.54450910E-06    3
-2.45863970E-08 1.15105700E-11 7.14067150E+03 1.71481150E+01                   4
sC4H9                   C   4H   9          G   300.000  3000.000  1000.000    1
 9.42638390E+00 2.19189980E-02-7.28683750E-06 1.06303340E-09-5.56494640E-14    2
 3.19658740E+03-2.24060510E+01 6.94284230E-01 3.31133460E-02 6.29425770E-06    3
-2.70252740E-08 1.19893150E-11 6.41756540E+03 2.62797890E+01                   4
tC4H9                   C   4H   9          G   300.000  3000.000  1000.000    1
 7.66072610E+00 2.38794140E-02-8.08903530E-06 1.20575210E-09-6.50098140E-14    2
 1.62076230E+03-1.48002810E+01 9.61675530E-01 2.57358560E-02 1.56090330E-05    3
-2.66565190E-08 8.94180100E-12 4.65644120E+03 2.48053660E+01                   4
iC4H9                   C   4H   9          G   300.000  3000.000  1000.000    1
 3.69434910E+00 3.60435260E-02-1.84065550E-05 4.63561370E-09-4.58629680E-13    2
 5.37537920E+03 6.84869930E+00-5.27984520E-01 5.01646290E-02-3.76793020E-05    3
 1.75059380E-08-3.95497740E-12 6.44309840E+03 2.81147950E+01                   4
C4H8                    C   4H   8          G   300.000  5000.000  1000.000    1
 2.05358410E+00 3.43505070E-02-1.58831970E-05 3.30896620E-09-2.53610450E-13    2
-2.13972310E+03 1.55432010E+01 1.18113800E+00 3.08533800E-02 5.08652470E-06    3
-2.46548880E-08 1.11101930E-11-1.79040040E+03 2.10624690E+01                   4
C4H82                   C   4H   8          G   300.000  5000.000  1000.000    1
 8.27976760E-01 3.58645390E-02-1.66344980E-05 3.47327590E-09-2.66573980E-13    2
-3.05210330E+03 2.13425450E+01 1.25942520E+00 2.78084240E-02 8.70139320E-06    3
-2.44022050E-08 9.89777100E-12-2.96477420E+03 2.05011290E+01                   4
iC4H8                   H   8C   4          G   300.000  5000.000  1000.000    1
 4.46094700E+00 2.96114870E-02-1.30771290E-05 2.65719340E-09-2.01347130E-13    2
-5.00667580E+03 1.06715490E+00 2.64714050E+00 2.59029570E-02 8.19853540E-06    3
-2.21932590E-08 8.89585800E-12-4.03730690E+03 1.26763880E+01                   4
C4H7                    C   4H   7          G   300.000  3000.000  1000.000    1
 1.19633920E+01 1.14253050E-02 7.89489090E-07-1.98588720E-09 3.68736450E-13    2
 1.69629770E+04-3.75429080E+01 2.86982540E-01 3.69644950E-02-8.62774410E-06    3
-1.50518210E-08 8.98912630E-12 2.05513010E+04 2.44844670E+01                   4
iC4H7                   C   4H   7          G   300.000  3000.000  1000.000    1
 7.44919560E+00 2.26305040E-02-8.80950140E-06 1.43364780E-09-7.32472690E-14    2
 1.11961820E+04-1.19477790E+01 3.45126600E+00 2.46860390E-02 5.23595140E-06    3
-1.61308260E-08 5.38816870E-12 1.27833610E+04 1.10801500E+01                   4
C3H8                    C   3H   8          G   300.000  3000.000  1000.000    1
 7.52441520E+00 1.88982820E-02-6.29210410E-06 9.21614570E-10-4.86844780E-14    2
-1.65643940E+04-1.78383750E+01 9.28510930E-01 2.64605660E-02 6.03324460E-06    3
-2.19149530E-08 9.49615440E-12-1.40579070E+04 1.92255380E+01                   4
nC3H7                   C   3H   7          G   300.000  3000.000  1000.000    1
 7.70974790E+00 1.60314850E-02-5.27202380E-06 7.58883520E-10-3.88627190E-14    2
 7.97622360E+03-1.55152970E+01 1.04911730E+00 2.60089730E-02 2.35425160E-06    3
-1.95951320E-08 9.37202070E-12 1.03123460E+04 2.11360340E+01                   4
iC3H7                   C   3H   7          G   300.000  3000.000  1000.000    1
 6.51927410E+00 1.72201040E-02-5.73642170E-06 8.41307320E-10-4.45659130E-14    2
 7.32271930E+03-9.08302150E+00 1.44491990E+00 2.09991120E-02 7.70362220E-06    3
-1.84762530E-08 7.12829620E-12 9.42237240E+03 2.01163170E+01                   4
C3H6                    C   3H   6          G   300.000  5000.000  1000.000    1
 6.73225700E+00 1.49083400E-02-4.94989900E-06 7.21202200E-10-3.76620400E-14    2
-9.23570300E+02-1.33133500E+01 1.49330700E+00 2.09251800E-02 4.48679400E-06    3
-1.66891200E-08 7.15814600E-12 1.07482600E+03 1.61453400E+01                   4
aC3H5                   C   3H   5          G   300.000  3000.000  1000.000    1
 6.50078770E+00 1.43247310E-02-5.67816320E-06 1.10808010E-09-9.03638870E-14    2
 1.74824490E+04-1.12430500E+01 1.36318350E+00 1.98138210E-02 1.24970600E-05    3
-3.33555550E-08 1.58465710E-11 1.92456290E+04 1.71732140E+01                   4