!"The influence of ethanol addition on a rich premixed benzene flame at low pressure"
! Veronique Dias, Haddy Mbuyi Katshiatshia, Herve Jeanmart
!Submitted in Combustion and Flame, 2013

ELEMENTS
 O H C AR N 
END

SPECIES
H2 H O O2 OH CH2COOH CH3CO2 CH3COOH HCOOH C2H5CHO C2H5CO CH3COCH3 CH3COCH2
H2O HO2 CH CH2 CH3
CH4 CO CO2 HCO CH2O
C2H C2H2 C2H3 C2H4 C2H5
C2H6 HCCO CH2CO HCCOH CH2(S)
C2H5OCO H2O2 AR C2H5OCHO C3H2
C3H3 pC3H4 aC3H4 C4H2 H2C4O
n-C4H3 i-C4H3 C4H4 n-C4H5 i-C4H5
C4H6 C4H8 C4H7 C4H C6H2
C6H3 C6H4 C6H C6H6 C6H5
C6H6O C6H5O C5H6 C5H5 C5H5C2H3
C5H5C2H2 C3H8 nC3H7 iC3H7 C3H6
C3H5 CH3CHO CH3CO C7H7 C7H8
C8H6 C8H8 C8H5 C8H7 C9H7
C9H8 C10H8 C10H7*1 C10H7O
DMM DMM1 DMM2 CH3OCH2O CH3OCH2
CH3OCHO CH3OCO CH3O CH3OH CH2OH
FULVENE C12H9 A3
DEM C2H5OCH2OH C2H5OCH2O C2H4OCH2OH C2H4OH
C2H5OH CH2CHO CH3CH2O CH3CHOH CH2CH2OCH2OCH2CH3
CH3CH2OCHOCH2CH3 CH3CHOCH2OCH2CH3 C2H5OCH2 FULVENYL c-C6H4
PHCH2 CH3O2 CH3O2H CH3CHCHO CH2CH2CHO CH3CHCO CH2CHCO CH2CHCHO CH3CHOCHO
C12H10 C10H7*2 C10H7O-1 C10H7O-2 C12H8 C12H11
A2CH3-1 A2CH2-1 A2CH3-2 A2CH2-2 A2CH2-1f A2CH2-2f A2CH2-1f* A2CH2-2f*
C5H4 C5H4H C5H5O C5H4O C5H4OH C5H3 C5H3(L) C5H2(L) A3*1 A3*2 A3*4 A3*9
A3L A3L*1 A3L*2 A3L*9 PYRENE PYRENE*1 PYRENE*2 PYRENE*4
C10H7OH-1 C10H7OH-2 C2O C12H8J1 C12H8J3 C12H8J4 C12H8J5
N2 N NO NO2 N2O NH HNO NH2 NNH N2H2 NH3 H2NO HONO
C CN HCN HCNO H2CN HOCN NCO HNCO C2N2 NCN C6H5CH
 END

REACTIONS CAL/MOLE
H+O2 = OH+O 1.040000E+014 0.000000E+000 1.529000E+004 !Keromnes (2013)
H2+O = H+OH 5.080000E+004 2.670000E+000 6.292000E+003 !Keromnes (2013)
OH+H2 = H2O+H 4.380000E+013 0.000000E+000 6.990000E+003 !Keromnes (2013)
H2O+O = OH+OH 2.970000E+006 2.020000E+000 1.340000E+004 !Keromnes (2013)
H2+M = H+H+M 4.577000E+019 -1.400000E+000 1.044000E+005 !Keromnes (2013)
     H2O /1.200000E+001/  H2 /2.500000E+000/  CO /1.900000E+000/  CO2 /3.800000E+000/
O+O+M = O2+M 6.165000E+015 -5.000000E-001 0.000000E+000 !Keromnes (2013)
     H2O /1.200000E+001/  H2 /2.500000E+000/  CO /1.900000E+000/  CO2 /3.800000E+000/
H+OH+M = H2O+M 3.500000E+022 -2.000000E+000 0.000000E+000 !Keromnes (2013)
     H2O /3.650000E+000/  H2 /7.300000E-001/  CO /1.900000E+000/  CO2 /3.800000E+000/
H+O2(+M) = HO2(+M) 4.650000E+012 4.400000E-001 0.000000E+000 !Keromnes (2013)
     LOW /1.737000E+019 -1.230000E+000 0.000000E+000/
  H2O /1.000000E+001/  H2 /1.300000E+000/  CO /1.900000E+000/  CO2 /3.800000E+000/
H+HO2 = OH+OH 7.079000E+013 0.000000E+000 2.950000E+002 !Keromnes (2013)
H2+O2 = H+HO2 5.176000E+005 2.430000E+000 5.350000E+004 !Keromnes (2013)
HO2+O = O2+OH 3.250000E+013 0.000000E+000 0.000000E+000 !Keromnes (2013)
OH+HO2 = H2O+O2 2.456000E+013 0.000000E+000 -4.970000E+002 !Keromnes (2013)
HO2+HO2 = O2+H2O2 1.300000E+011 0.000000E+000 -1.630000E+003 !GRI 3.0
     DUPLICATE
HO2+HO2 = O2+H2O2 3.658000E+014 0.000000E+000 1.200000E+004 !Keromnes (2013)
     DUPLICATE
H2O2(+M) = OH+OH(+M) 2.000000E+012 9.000000E-001 4.875000E+004 !Keromnes (2013)
     LOW /2.490000E+024 -2.300000E+000 4.875000E+004/
  H2 /3.700000E+000/  O2 /1.200000E+000/  CO /2.800000E+000/  CO2 /1.600000E+000/
H2O2+H = HO2+H2 2.150000E+010 1.000000E+000 6.000000E+003 !Kermnes (2013)
OH+H2O2 = HO2+H2O 1.740000E+012 0.000000E+000 3.180000E+002 !Keromnes (2013)
     DUPLICATE
OH+H2O2 = HO2+H2O 7.590000E+013 0.000000E+000 7.269000E+003 !Keromnes (2013)
     DUPLICATE
H+O+M = OH+M 4.714000E+018 -1.000000E+000 0.000000E+000 !Keromnes (2013)
     H2O /1.200000E+001/  H2 /2.500000E+000/  CO /1.500000E+000/  CO2 /2.000000E+000/
CO+OH = CO2+H 7.015000E+004 2.050000E+000 -3.557000E+002 !Keromnes (2013)
     DUPLICATE
CO+OH = CO2+H 5.757000E+012 -6.600000E-001 3.318000E+002 !Keromnes (2013)
     DUPLICATE
H+CH2O = HCO+H2 1.260000E+008 1.620000E+000 2.170000E+003 !Nico
O+CH2O = HCO+OH 1.070000E+013 5.700000E-001 2.762000E+003 !Baulch (1992)
OH+CH2O = HCO+H2O 1.800000E+013 0.000000E+000 4.360000E+002 !Vando
CH2O+M = HCO+H+M 3.300000E+039 -6.300000E+000 9.990400E+004 !                                              
     Ar /7.000000E-001/  H2 /2.000000E+000/  CO /1.500000E+000/  CH2O /3.000000E+000/
H+HCO = CO+H2 7.340000E+013 0.000000E+000 0.000000E+000 !Keromnes (2013)
O+HCO = CO2+H 3.000000E+013 0.000000E+000 0.000000E+000 !Keromnes (2013)
O+HCO = CO+OH 3.020000E+013 0.000000E+000 0.000000E+000 !Keromnes (2013)
OH+HCO = CO+H2O 1.020000E+014 0.000000E+000 0.000000E+000 !                                                                                                                                                                                                                                                                                                                                                                                                  BaulCH (1992)
O2+HCO = CO+HO2 7.580000E+012 0.000000E+000 4.100000E+002 !Keromnes (2013)
HCO+M = CO+H+M 4.750000E+011 6.600000E-001 1.487000E+004 !Keromnes (2013)
     H2O /1.200000E+001/  H2 /2.000000E+000/  CO /1.500000E+000/  CO2 /2.000000E+000/
H+CH2 = CH+H2 6.020000E+012 0.000000E+000 -1.789000E+003 !                                                                                                                                                                                                                                                                                                                                                                                                  BaulCH (1992)
O+CH2 = CO+H+H 1.200000E+014 0.000000E+000 0.000000E+000 !                                                                                                                                                                                                                                                                                                                                                                                                  BaulCH (1992)
O2+CH2 = CO2+H+H 2.470000E+013 0.000000E+000 1.491000E+003 !                                                                                                                                                                                                                                                                                                                                                                                                  BaulCH (1992)
O+CH = CO+H 3.970000E+013 0.000000E+000 0.000000E+000 !                                                                                                                                                                                                                                                                                                                                                                                                  BaulCH (1992)
O2+CH = CO+OH 3.310000E+013 0.000000E+000 0.000000E+000 !                                                                                                                                                                                                                                                                                                                                                                                                  BaulCH (1992)
H+HCCO = CH2(S)+CO 1.000000E+014 0.000000E+000 0.000000E+000 !                                                                                                                                                                                                                                                                                                                                                                                                  Miller (1992)
O+HCCO = CO+CO+H 9.640000E+013 0.000000E+000 0.000000E+000 !                                                                                                                                                                                                                                                                                                                                                                                                  BaulCH (1992)
HCCO+OH => HCO+CO+H 1.000000E+014 0.000000E+000 0.000000E+000 !                                                                                                                                                                                                                                                                                                                                                                                                  Peeters (1996)
HCCO+O2 => CO+CO+OH 1.630000E+012 0.000000E+000 8.550000E+002 !                                                                                                                                                                                                                                                                                                                                                                                                  Peeters (1996)
CH+CO2 = HCO+CO 3.400000E+012 0.000000E+000 6.900000E+002 !                                                                                                                                                                                                                                                                                                                                                                                                  Miller (1992)
CO+O(+M) = CO2(+M) 1.362000E+010 0.000000E+000 2.384000E+003 !Keromnes (2013)
     LOW /1.173000E+024 -2.790000E+000 4.191000E+003/
  H2O /1.200000E+001/  H2 /2.000000E+000/  CO /1.750000E+000/  CO2 /3.600000E+000/
CO+O2 = CO2+O 1.119000E+012 0.000000E+000 4.770000E+004 !Keromnes (2013)
HO2+CO = CO2+OH 1.570000E+005 2.180000E+000 1.794000E+004 !Keromnes (2013)
CH2+CH2 = C2H2+H2 1.200000E+014 0.000000E+000 7.950000E+002 !                                                                                                                                                                                                                                                                                                                                                                                                  BaulCH (1992)
CH3+CH2 = C2H4+H 4.220000E+013 0.000000E+000 0.000000E+000 !                                                                                                                                                                                                                                                                                                                                                                                                  BaulCH (1992)
CH2(S)+M = CH2+M 1.000000E+013 0.000000E+000 0.000000E+000
     H /0.000000E+000/  H2O /0.000000E+000/  C2H2 /0.000000E+000/
CH2(S)+CH4 = 2CH3 4.000000E+013 0.000000E+000 0.000000E+000 !                                                                                                                                                                                                                                                                                                                                                                                                  Miller (1992)
CH2(S)+C2H6 = CH3+C2H5 1.200000E+014 0.000000E+000 0.000000E+000 !                                                                                                                                                                                                                                                                                                                                                                                                  Miller (1992)
CH2(S)+O2 = CO+OH+H 7.000000E+013 0.000000E+000 0.000000E+000 !                                                                                                                                                                                                                                                                                                                                                                                                  Miller (1992)
CH2(S)+H2O = CH3+OH 7.500000E+006 2.000000E+000 5.000000E+003 !                                                                                                                                                                                                                                                                  Richter (1999)
CH2(S)+H2O = CH2+H2O 3.000000E+013 0.000000E+000 0.000000E+000 !                                                                                                                                                                                                                                                                                                                                                                                                  Miller (1992)
CH2(S)+C2H2 = CH2+C2H2 4.000000E+013 0.000000E+000 0.000000E+000 !                                                                                                                                                                                                                                                                                                                                                                                                  Miller (1992)
CH2(S)+H = CH2+H 2.000000E+014 0.000000E+000 0.000000E+000 !                                                                                                                                                                                                                                                                                                                                                                                                  Miller (1992)
CH2(S)+O = CO+2H 3.000000E+013 0.000000E+000 0.000000E+000 !                                                                                                                                                                                                                                                                                                                                                                                                  Miller (1992)
CH2(S)+OH = CH2O+H 3.000000E+013 0.000000E+000 0.000000E+000 !                                                                                                                                                                                                                                                                                                                                                                                                  Miller (1992)
CH2(S)+H = CH+H2 3.000000E+013 0.000000E+000 0.000000E+000 !                                                                                                                                                                                                                                                                                                                                                                                                  Miller (1992)
CH2(S)+CO2 = CH2O+CO 1.400000E+013 0.000000E+000 0.000000E+000 !                                                                                                                                                                                                                                                                                                                                                                                                  Gri 1.2 (1995)
CH2(S)+CH3 = C2H4+H 2.000000E+013 0.000000E+000 0.000000E+000 !                                                                                                                                                                                                                                                                                                                                                                                                  Miller (1992)
CH2(S)+CH2CO = C2H4+CO 1.600000E+014 0.000000E+000 0.000000E+000 !                                                                                                                                                                                                                                                                                                                                                                                                  Miller (1992)
O+CH2CO = HCO+HCO 2.290000E+012 0.000000E+000 1.352000E+003 !                                                                                                                                                                                                                                                                                                                                                                                                  BaulCH (1992)
CH2CO+M = CH2+CO+M 1.000000E+016 0.000000E+000 5.932400E+004 !                                                                                                                                                                                                                                                                                                                                                                                                  Warnatz (1984)
CH3CHO+O2 = CH3CO+HO2 3.000000E+013 0.000000E+000 3.910000E+004 !                                                                                                                                                                                                                                                                                                                                                                                                  Davis (1999)
CH3CHO+OH = CH3CO+H2O 2.350000E+010 7.300000E-001 -1.110000E+003 !                                                                                                                                                                                                                                                                                                                                                                                                  Davis (1999)
CH3CHO+O = CH3CO+OH 5.800000E+012 0.000000E+000 1.800000E+003 !                                                                                                                                                                                                                                                                                                                                                                                                  Davis (1999)
CH3CHO+CH3 = CH3CO+CH4 2.000000E-006 5.600000E+000 2.460000E+003 !                                                                                                                                                                                                                                                                                                                                                                                                  Davis (1999)
CH3CO+O = CH2CO+OH 3.900000E+013 0.000000E+000 0.000000E+000 !                                                                                                                                                                                                                                                                                                                                                                                                  Davis (1999)				
CH3CO+O = CH3+CO2 1.00000E+013 0.000000E+000 0.000000E+000 !                                                                                                                                                                                                                                                                                                                                                                                                Pichon (2009)				
CH3CO+OH = CH2CO+H2O 1.200000E+013 0.000000E+000 0.000000E+000 !                                                                                                                                                                                                                                                                                                                                                                                                  Davis (1999)				
CH3CO+OH = CH3+CO+OH 3.000000E+013 0.000000E+000 0.000000E+000 !                                                                                                                                                                                                                                                                                                                                                                                                  Davis (1999)				
CH3CO+HO2 = CH3+CO2+OH 3.000000E+013 0.000000E+000 0.000000E+000 !                                                                                                                                                                                                                                                                                                                                                                                                  Davis (1999)				
CH3+HCO = CH3CHO 1.800000E+013 0.000000E+000 0.000000E+000 !                                                                                                                                                                                                                                                             Davis (1999)
H+CH4 = H2+CH3 1.320000E+004 3.000000E+000 8.041000E+003 !                                                                                                                                                                                                                                                                                                                                                                                                  BaulCH (1992)				
O+CH4 = OH+CH3 9.030000E+008 1.560000E+000 8.489000E+003 !                                                                                                                                                                                                                                                                                                                                                                                                  BaulCH (1992)				
OH+CH4 = H2O+CH3 1.560000E+007 1.830000E+000 2.783000E+003 !                                                                                                                                                                                                                                                                                                                                                                                                  BaulCH (1992)	
CH3+H+M = CH4+M 8.000000E+026 -3.000000E+000 0.000000E+000 !Miller (1992)
     H2 /2.000000E+000/  CO /2.000000E+000/  CO2 /3.000000E+000/  H2O /5.000000E+000/
CH2+H2 = CH3+H 7.000000E+013 0.000000E+000 0.000000E+000 !Richter (2002)
O+CH3 = CH2O+H 8.430000E+013 0.000000E+000 0.000000E+000 !                                                                                                                                                                                                                                                                                                                                                                                                  BaulCH (1992)	
O2+CH3 = CH2O+OH 3.310000E+011 0.000000E+000 8.946000E+003 !                                                                                                                                                                                                                                                                                                                                                                                                  BaulCH (1992)	
OH+CH3 = CH2O+H2 8.000000E+012 0.000000E+000 0.000000E+000 !                                                                                                                                                                                                                                                                                                                                                                                                  BaulCH (1992)	
OH+CH3 = CH2+H2O 3.610000E+013 0.000000E+000 0.000000E+000 !                                                                                                                                                                                                                                                                                                                                                                                                  BaulCH (1992)	
CH3+CH2O = HCO+CH4 4.090000E+012 0.000000E+000 8.847000E+003 !                                                                                                                                                                                                                                                                                                                                                                                                  BaulCH (1992)	
CH3+CH3 = C2H6 9.973000E+025 -3.890000E+000 5.100000E+003 !                                                                             Daily (1999)
CH3+CH3 = C2H5+H 8.920000E+011 -5.000000E-003 1.185000E+004 !                                                                                                                                                                                                                                                                                                                                                         
CH3+CH3 = C2H4+H2 1.000000E+016 0.000000E+000 3.201300E+004 !                                                                                                                                                                                                                                                                                                                                                                                                  Warnatz (1984)	
C2H3+O2 = C2H2+HO2 1.000000E+011 0.000000E+000 0.000000E+000 !                                                                                                                                                                                                                                                                                                                                                                                                  Davis (1999)
C2H3+OH = C2H2+H2O 2.000000E+013 0.000000E+000 0.000000E+000 !                                                                                                                                                                                                                                                                                                                                                                                                  Miller (1992)
O+C2H3 = CH2CO+H 3.000000E+013 0.000000E+000 0.000000E+000 !                                                                                                                                                                                                                                                                                                                                                                                                  Miller (1992)
C2H3+H = C2H2+H2 1.200000E+013 0.000000E+000 0.000000E+000 !                                                                                                                                                                                                                                                                                                                                                                                                  Miller (1992)
H+C2H2(+M) = C2H3(+M) 5.600000E+012 0.000000E+000 2.400000E+003
     LOW /3.800000E+040 -7.270000E+000 7.220000E+003/
  TROE /7.507000E-001 9.850000E+001 1.302000E+003 4.167000E+003/
H2+C2H = H+C2H2 4.9E5 2.5 560 !                                                                                                                                                                                                                                                                                                                                                                                                  Li (2011)
O+C2H2 = CH2+CO 6.940000E+006 2.000000E+000 1.900000E+003 !GRI
O+C2H2 = HCCO+H 1.350000E+007 2.000000E+000 1.900000E+003 !GRI